.MODEL  BFP740F   NPN
+              IS = 384.4e-18
+              BF = 1.1e3
+              NF = 1.018
+             VAF = 400
+             IKF = 512.1e-3
+             ISE = 4.296e-15
+              NE = 1.586
+              BR = 62
+              NR = 1
+             VAR = 1.28
+             IKR = 5e-3
+             ISC = 3.85e-15
+              NC = 1.5
+              RB = 3.23
+             IRB = 10
+             RBM = 1.69
+              RE = 90e-3
+              RC = 6.88
+              EG = 1.11
+             XTI = 910e-3
+             CJE = 220e-15
+             VJE = 590e-3
+             MJE = 70e-3
+              TF = 2.1e-12
+             XTF =  3
+             VTF = 1.32
+             ITF = 290e-3
+             PTF = 100e-3
+             CJC = 99.5e-15
+             VJC = 550e-3
+ MJC = 152e-3
+ XCJC = 10e-3
+ TR = 13e-12
+ CJS = 79.7e-15
+ VJS = 570e-3
+ MJS = 180e-3
+ XTB = -2.2
+ FC = 950e-3
+ AF = 1
+ KF = 0
+ TNOM = 25
.ENDS
