.MODEL  BFP740F   NPN
+              IS = 384.4a
+              BF = 1.1k
+              NF = 1.018
+             VAF = 400
+             IKF = 512.1m
+             ISE = 4.296f
+              NE = 1.586
+              BR = 62
+              NR = 1
+             VAR = 1.28
+             IKR = 5m
+             ISC = 3.85f
+              NC = 1.5
+              RB = 3.23
+             IRB = 10
+             RBM = 1.69
+              RE = 90m
+              RC = 6.88
+              EG = 1.11
+             XTI = 910m
+             CJE = 220f
+             VJE = 590m
+             MJE = 70m
+              TF = 2.1p
+             XTF =  3
+             VTF = 1.32
+             ITF = 290m
+             PTF = 100m
+             CJC = 99.5f
+             VJC = 550m
+ MJC = 152m
+ XCJC = 10m
+ TR = 13p
+ CJS = 79.7f
+ VJS = 570m
+ MJS = 180m
+ XTB = -2.2
+ FC = 950m
+ AF = 1
+ KF = 0
+ TNOM = 25
.ENDS

