.model BZX84C2V5L D(Is=1.5n Rs=.5 Cjo=450p nbv=3 bv=5 Ibv=1m Vpk=2.5 mfg=OnSemi type=Zener)
