Version 4
SHEET 1 3964 3484
WIRE 1872 -528 1616 -528
WIRE 2032 -528 1968 -528
WIRE 2096 -528 2032 -528
WIRE 800 -512 800 -544
WIRE 1872 -480 1872 -496
WIRE 1968 -480 1968 -496
WIRE 1968 -480 1872 -480
WIRE 2176 -480 2176 -528
WIRE 2176 -480 1968 -480
WIRE 1968 -464 1968 -480
WIRE 432 -400 432 -448
WIRE 800 -400 800 -448
WIRE 864 -400 800 -400
WIRE 672 -352 672 -368
WIRE 800 -352 800 -400
WIRE 1008 -352 1008 -400
WIRE 1008 -352 912 -352
WIRE 1008 -336 1008 -352
WIRE 208 -256 16 -256
WIRE 240 -256 208 -256
WIRE 432 -256 432 -320
WIRE 432 -256 384 -256
WIRE 480 -256 432 -256
WIRE 576 -256 480 -256
WIRE 672 -256 672 -272
WIRE 672 -256 640 -256
WIRE 800 -256 800 -272
WIRE 800 -256 672 -256
WIRE 800 -224 800 -256
WIRE 1008 -208 1008 -256
WIRE 912 -192 912 -352
WIRE 1184 -192 1184 -224
WIRE 1872 -176 1616 -176
WIRE 2048 -176 1968 -176
WIRE 2112 -176 2048 -176
WIRE 432 -160 432 -256
WIRE 1872 -128 1872 -144
WIRE 1968 -128 1968 -144
WIRE 1968 -128 1872 -128
WIRE 2192 -128 2192 -176
WIRE 2192 -128 1968 -128
WIRE -176 -112 -272 -112
WIRE -144 -112 -176 -112
WIRE -64 -112 -144 -112
WIRE 64 -112 16 -112
WIRE 208 -112 208 -256
WIRE 208 -112 128 -112
WIRE 368 -112 208 -112
WIRE 800 -112 800 -144
WIRE -272 -96 -272 -112
WIRE 1968 -96 1968 -128
WIRE 1008 -80 1008 -128
WIRE 1088 -80 1008 -80
WIRE 1184 -80 1184 -112
WIRE 1184 -80 1152 -80
WIRE 1248 -80 1184 -80
WIRE 1376 -80 1328 -80
WIRE 1008 -64 1008 -80
WIRE -144 -48 -144 -112
WIRE 208 -32 208 -112
WIRE 432 -32 432 -64
WIRE 800 -16 800 -48
WIRE 912 -16 912 -112
WIRE 912 -16 800 -16
WIRE 944 -16 912 -16
WIRE 1968 -16 1888 -16
WIRE 2048 -16 1968 -16
WIRE 800 16 800 -16
WIRE 1008 64 1008 32
WIRE 2048 64 2048 48
WIRE 2048 64 1968 64
WIRE 208 80 208 48
WIRE 1968 112 1968 64
WIRE 800 128 800 80
WIRE -272 160 -272 -16
WIRE -144 160 -144 32
WIRE -144 160 -272 160
WIRE -272 192 -272 160
WIRE 1888 208 1888 -16
WIRE 2016 224 1936 224
WIRE 1936 304 1936 272
WIRE 2016 304 1936 304
WIRE 1888 320 1888 288
WIRE 1888 320 1616 320
WIRE 1936 352 1936 304
FLAG -272 192 0
FLAG -176 -112 IN
FLAG 1968 -464 0
FLAG 1968 -96 0
FLAG 1968 112 0
FLAG 1936 352 0
FLAG 2048 -176 SLOW_PAD
FLAG 2032 -528 FAST_PAD
FLAG 1616 320 DISCHARGE
FLAG 1616 -176 SLOW
FLAG 1616 -528 FAST
FLAG 432 -32 0
FLAG -64 -256 DISCHARGE
FLAG 208 80 V4
FLAG -208 -416 0
FLAG -208 -496 V4
FLAG 480 -192 0
FLAG 432 -448 V4
FLAG 672 -368 V4
FLAG 864 -400 FAST
FLAG 800 -544 VTERM
FLAG -96 -416 0
FLAG -96 -496 VTERM
FLAG 800 128 0
FLAG 1008 64 0
FLAG 1008 -400 V4
FLAG 1184 -224 VTERM
FLAG 1376 -80 SLOW
SYMBOL res 32 -128 R90
WINDOW 0 -1 66 VBottom 2
WINDOW 3 32 56 VTop 2
SYMATTR InstName R23
SYMATTR Value 820R
SYMBOL res -160 -64 R0
WINDOW 3 40 87 Left 2
SYMATTR Value 53.6R
SYMATTR InstName R25
SYMBOL tline 1920 -160 R0
WINDOW 3 -1 -91 Top 2
SYMATTR Value Td=.3n Z0=50
SYMATTR InstName T1
SYMBOL current -272 -16 R180
WINDOW 0 24 80 Left 2
WINDOW 3 -65 122 Left 2
WINDOW 123 0 0 Left 2
WINDOW 39 0 0 Left 2
SYMATTR InstName I1
SYMATTR Value PWL(0n 0 10n {incurr} 20n 0 80n 0 90n {incurr} 100n 0)
SYMBOL sw 1888 192 M0
WINDOW 3 -295 59 Left 2
SYMATTR Value MySwitch
SYMATTR InstName S1
SYMBOL res 2096 -160 R270
WINDOW 0 32 56 VTop 2
WINDOW 3 0 56 VBottom 2
SYMATTR InstName R13
SYMATTR Value 100k
SYMBOL current 1968 64 R180
WINDOW 123 0 0 Left 2
WINDOW 39 0 0 Left 2
WINDOW 3 12 101 Left 2
SYMATTR InstName I2
SYMATTR Value 32m
SYMBOL zener 2064 48 R180
WINDOW 0 24 64 Left 2
WINDOW 3 -152 -6 Left 2
SYMATTR InstName D1
SYMATTR Value BZX84C2V5L
SYMBOL tline 1920 -512 R0
WINDOW 3 -1 -91 Top 2
SYMATTR Value Td=.3n Z0=50
SYMATTR InstName T2
SYMBOL bv 2016 208 R0
SYMATTR InstName B1
SYMATTR Value V=delay(V(SLOW_PAD),30n)
SYMBOL res 2192 -544 R90
WINDOW 0 0 56 VBottom 2
WINDOW 3 32 56 VTop 2
SYMATTR InstName R15
SYMATTR Value 100k
SYMBOL cap 128 -128 R90
WINDOW 0 0 32 VBottom 2
WINDOW 3 32 32 VTop 2
SYMATTR InstName C257
SYMATTR Value 220n
SYMBOL npn 368 -160 R0
SYMATTR InstName Q1
SYMATTR Value BFS520
SYMATTR Prefix X
SYMBOL res 32 -272 R90
WINDOW 0 0 56 VBottom 2
WINDOW 3 32 56 VTop 2
SYMATTR InstName R20
SYMATTR Value 12k
SYMBOL res 192 -48 R0
SYMATTR InstName R26
SYMATTR Value 10k
SYMBOL voltage -208 -512 R0
SYMATTR InstName V1
SYMATTR Value 4
SYMBOL res 336 -272 R90
WINDOW 0 0 56 VBottom 2
WINDOW 3 32 56 VTop 2
SYMATTR InstName R21
SYMATTR Value 680
SYMBOL cap 384 -272 R90
WINDOW 0 0 32 VBottom 2
WINDOW 3 32 32 VTop 2
SYMATTR InstName C254
SYMATTR Value 100n
SYMBOL cap 464 -256 R0
WINDOW 0 42 20 Left 2
WINDOW 3 42 50 Left 2
SYMATTR InstName C258
SYMATTR Value 2.7p
SYMBOL cap 640 -272 R90
WINDOW 0 0 32 VBottom 2
WINDOW 3 32 32 VTop 2
SYMATTR InstName C255
SYMATTR Value 100n
SYMBOL res 656 -368 R0
SYMATTR InstName R18
SYMATTR Value 200k
SYMBOL ind 416 -416 R0
SYMATTR InstName L4
SYMATTR Value 330µ
SYMBOL res 784 -368 R0
SYMATTR InstName R19
SYMATTR Value 220
SYMBOL diode 816 -448 R180
WINDOW 0 24 64 Left 2
WINDOW 3 24 0 Left 2
SYMATTR InstName D8
SYMATTR Value 1N4148
SYMATTR Prefix X
SYMBOL voltage -96 -512 R0
SYMATTR InstName V2
SYMATTR Value 2.4
SYMBOL res 784 -240 R0
SYMATTR InstName R22
SYMATTR Value 300
SYMBOL cap 784 -112 R0
SYMATTR InstName C259
SYMATTR Value 100n
SYMBOL cap 784 16 R0
SYMATTR InstName C262
SYMATTR Value 10n
SYMBOL npn 944 -64 R0
SYMATTR InstName Q2
SYMATTR Value BFP740F
SYMBOL ind 992 -224 R0
SYMATTR InstName L7
SYMATTR Value 330µ
SYMBOL ind 992 -352 R0
SYMATTR InstName L6
SYMATTR Value 330µ
SYMBOL res 896 -208 R0
SYMATTR InstName R1
SYMATTR Value 62k
SYMBOL cap 1152 -96 R90
WINDOW 0 0 32 VBottom 2
WINDOW 3 32 32 VTop 2
SYMATTR InstName C260
SYMATTR Value 100n
SYMBOL res 1168 -208 R0
SYMATTR InstName R122
SYMATTR Value 220
SYMBOL res 1344 -96 R90
WINDOW 0 0 56 VBottom 2
WINDOW 3 32 56 VTop 2
SYMATTR InstName R123
SYMATTR Value 220
TEXT -840 -216 Left 2 !.tran 0 40ns 0s 2E-12
TEXT 1912 168 Left 2 !.model MySwitch SW(Ron=1M Roff=1M Vt=-2.8 Vh=-0.01 Lser=0 Vser=.0)
TEXT -840 -176 Left 2 !.param incurr=-10m
TEXT -848 -392 Left 2 !.include BFS520.lib
TEXT -848 -360 Left 2 !.include 1N4148.lib
TEXT -848 -328 Left 2 !.include BFP740F.lib
LINE Normal 1632 464 1632 464 2
